test/resources/V1_13/areaRoundTripRef.xml
<?xml version="1.0" encoding="UTF-8"?>
<iidm:network xmlns:iidm="http://www.powsybl.org/schema/iidm/1_13" id="test" caseDate="2020-03-04T13:20:30.476000+01:00" forecastDistance="0" sourceFormat="test" minimumValidationLevel="STEADY_STATE_HYPOTHESIS">
    <iidm:network id="sub" caseDate="2020-03-04T13:20:30.476000+01:00" forecastDistance="0" sourceFormat="format" minimumValidationLevel="STEADY_STATE_HYPOTHESIS">
        <iidm:substation id="sub3">
            <iidm:voltageLevel id="VL2" nominalV="1" topologyKind="BUS_BREAKER">
                <iidm:busBreakerTopology>
                    <iidm:bus id="N3"/>
                </iidm:busBreakerTopology>
            </iidm:voltageLevel>
        </iidm:substation>
        <iidm:area id="BidZoneId3" name="BidZoneName3" areaType="BiddingZone">
            <iidm:voltageLevelRef id="VL2"/>
        </iidm:area>
    </iidm:network>
    <iidm:substation id="sub1">
        <iidm:voltageLevel id="VL1" nominalV="1" topologyKind="BUS_BREAKER">
            <iidm:busBreakerTopology>
                <iidm:bus id="N1"/>
                <iidm:bus id="N2"/>
            </iidm:busBreakerTopology>
            <iidm:load id="L1" loadType="UNDEFINED" p0="0" q0="0" bus="N1" connectableBus="N1"/>
            <iidm:danglingLine id="DL1" p0="0" q0="0" r="0" x="0" g="0" b="0" bus="N2" connectableBus="N2"/>
        </iidm:voltageLevel>
    </iidm:substation>
    <iidm:substation id="sub2"/>
    <iidm:line id="Line1" r="0" x="0" g1="0" b1="0" g2="0" b2="0" bus1="N1" connectableBus1="N1" voltageLevelId1="VL1" bus2="N2" connectableBus2="N2" voltageLevelId2="VL1"/>
    <iidm:area id="BidZoneId1" name="BidZoneName1" areaType="BiddingZone">
        <iidm:voltageLevelRef id="VL1"/>
        <iidm:areaBoundary ac="true" type="terminalRef" id="L1"/>
        <iidm:areaBoundary ac="false" type="boundaryRef" id="DL1"/>
    </iidm:area>
    <iidm:area id="BidZoneId2" name="BidZoneName2" areaType="BiddingZone" interchangeTarget="100">
        <iidm:areaBoundary ac="true" type="terminalRef" id="Line1" side="ONE"/>
    </iidm:area>
    <iidm:area id="ControlAreaId1" name="ControlAreaName1" areaType="ControlArea">
        <iidm:voltageLevelRef id="VL1"/>
    </iidm:area>
</iidm:network>
